Questionable use of curly braces in ".model sir870adp vdmos(rg=3 vto=2.9 rd=3.2m rs=1.5m rb={m} kp=100 mtriode=1.85 cgdmax=1.4n cgdmin=70p cgs=2.9n cjo=3.6n m=.4 a=.7 vj=.7 lambda=20m is=3p ksubthres=.08 mfg=siliconix vds=100 ron=5.5m qg=53.5n)"
    Error: undefined symbol in: "[m]"
Circuit: * C:\Users\Shreyash Bharati\Downloads\Non-Inverting Amplifier 1.asc

Ignoring BSIM parameter XL
Ignoring BSIM parameter XW
Ignoring BSIM parameter XL
Ignoring BSIM parameter XW
Warning: Pd = 0 is less than W.
Warning: Ps = 0 is less than W.
Warning: Pd = 0 is less than W.
Warning: Ps = 0 is less than W.
Warning: Pd = 0 is less than W.
Warning: Ps = 0 is less than W.
Warning: Pd = 0 is less than W.
Warning: Ps = 0 is less than W.
Warning: Pd = 0 is less than W.
Warning: Ps = 0 is less than W.
Warning: Pd = 0 is less than W.
Warning: Ps = 0 is less than W.
Direct Newton iteration for .op point succeeded.

Date: Thu Jun 06 09:42:23 2024
Total elapsed time: 0.190 seconds.

tnom = 27
temp = 27
method = modified trap
totiter = 2107
traniter = 2099
tranpoints = 1046
accept = 1045
rejected = 1
matrix size = 14
fillins = 6
solver = Normal
Matrix Compiler1: 1.23 KB object code size  0.7/0.3/[0.3]
Matrix Compiler2: 1.29 KB object code size  0.4/0.4/[0.3]


